  Page 1                                    Fri Aug 14 15:13:55 2020

  ******************************************************************
  *                           E P A N E T                          *
  *                   Hydraulic and Water Quality                  *
  *                   Analysis for Pipe Networks                   *
  *                         Version 2.2                            *
  ******************************************************************
  
  Error 213: invalid option value 18 in [TIMES] section:
   Start ClockTime    	18 PM

  Error 200: one or more errors in input file